test_system_data/gldFeeders/B2/G_1/DistributionSim_B2_G_1.glm
//Input feeder information for Taxonomy Feeders with different cases.
//Started on 10/21/09. This version created 21-Nov-2016 14:29:11.
// This version was created to perform FY11 Department of Energy
// analysis on the benefits of the SGIG grant projects.

clock {
     timezone MST+7MDT;
     starttime '2020-08-03 00:00:00';
     stoptime '2020-08-04 00:00:00';
}

#include "appliance_schedules.glm";
#include "water_and_setpoint_schedule_v5.glm";
#include "commercial_schedules.glm";
//#define stylesheet=http://gridlab-d.svn.sourceforge.net/viewvc/gridlab-d/trunk/core/gridlabd-2_0
#set minimum_timestep=1;
#set profiler=1;
#set relax_naming_rules=1;

module tape;
module climate;
module residential {
     implicit_enduses NONE;
};
module powerflow {
     solver_method NR;
     NR_iteration_limit 50;
};

class player {
     double value;
};

module market;
module connection;

class auction {
     double current_price_mean_24h;
     double current_price_stdev_24h;
};

object auction {
     name Market_1;
     period 300;
     special_mode BUYERS_ONLY;
     unit kW;
     init_price 10.0;
     init_stdev 0.05;
     fixed_price 10.0;
	 warmup 0;
}

object helics_msg {
    name DistributionSim_B2_G_1;
    parent Market_1;
    configure DistributionSim_B2_G_1.json;
}

object climate {
     name "AZ-Phoenix";
     tmyfile "AZ-Phoenix.tmy3";
     interpolate QUADRATIC;
};

//Configurations

object regulator_configuration {
      name regulator_configuration_75;
      name feeder_reg_cfg;
      Control OUTPUT_VOLTAGE;
      band_center 7500.0;
      band_width 120;
      connect_type WYE_WYE;
      time_delay 30;
      raise_taps 16;
      lower_taps 16;
      regulation 0.10;
      tap_pos_A 0;
      tap_pos_B 0;
      tap_pos_C 0;
}

object line_configuration {
      name line_configuration_6;
      conductor_A underground_line_conductor_2;
      conductor_B underground_line_conductor_2;
      conductor_C underground_line_conductor_2;
      conductor_N underground_line_conductor_2;
      spacing line_spacing_5;
}

object line_configuration {
      name line_configuration_7;
      conductor_A underground_line_conductor_3;
      conductor_B underground_line_conductor_3;
      conductor_C underground_line_conductor_3;
      conductor_N underground_line_conductor_3;
      spacing line_spacing_5;
}

object line_configuration {
      name line_configuration_8;
      conductor_A underground_line_conductor_4;
      conductor_B underground_line_conductor_4;
      conductor_C underground_line_conductor_4;
      conductor_N underground_line_conductor_4;
      spacing line_spacing_5;
}

object line_spacing {
      name line_spacing_5;
      distance_AB 3.0 in;
      distance_BC 3.0 in;
      distance_AC 3.0 in;
      distance_AN 2.0 in;
      distance_BN 2.0 in;
      distance_CN 2.0 in;
}

object transformer_configuration {
      name transformer_configuration_42;
      connect_type WYE_WYE;
      install_type PADMOUNT;
      primary_voltage 12470.000 V;
      secondary_voltage 480 V;
      power_rating 3000.0;
      powerA_rating 1000.0;
      powerB_rating 1000.0;
      powerC_rating 1000.0;
      resistance 0.00003;
      reactance 0.00017;
      shunt_impedance 6545.460+6655.949j;
}

object triplex_line_conductor {
      name triplex_4/0 AA;
      resistance 0.48;
      geometric_mean_radius 0.0158;
}

object triplex_line_configuration {
      name triplex_line_configuration_1;
      conductor_1 triplex_4/0 AA;
      conductor_2 triplex_4/0 AA;
      conductor_N triplex_4/0 AA;
      insulation_thickness 0.08;
      diameter 0.522;
}

object underground_line_conductor {
      name underground_line_conductor_2;
      //name 1000 AAC (Conc);
      rating.summer.continuous 488.0;
      outer_diameter 2.15;
      conductor_gmr 0.0371 ft;
      conductor_diameter 1.152;
      conductor_resistance 0.091872;
      neutral_gmr 0.0842565914341201 ft;
      neutral_resistance 5.3856;
      neutral_diameter 0.1019;
      neutral_strands 20.0;
      shield_gmr 0.00;
      shield_resistance 0.00;
}

object underground_line_conductor {
      name underground_line_conductor_3;
      //name 2 AL (Conc);
      rating.summer.continuous 112.0;
      outer_diameter 1.09;
      conductor_gmr 0.0088 ft;
      conductor_diameter 0.292;
      conductor_resistance 1.38336;
      neutral_gmr 0.0348162687755351 ft;
      neutral_resistance 13.5696;
      neutral_diameter 0.0641;
      neutral_strands 6.0;
      shield_gmr 0.00;
      shield_resistance 0.00;
}

object underground_line_conductor {
      name underground_line_conductor_4;
      //name 1000 AAC (Tape);
      rating.summer.continuous 775.0;
      outer_diameter 1.87;
      conductor_gmr 0.0371 ft;
      conductor_diameter 1.15;
      conductor_resistance 0.0222;
      neutral_gmr 0.0732739718442675 ft;
      neutral_resistance 0.05;
      neutral_diameter 0.102;
      neutral_strands 20.0;
      shield_gmr 0.00;
      shield_resistance 0.00;
}

object transformer_configuration {
     name trans_config_to_feeder;
     connect_type WYE_WYE;
     install_type PADMOUNT;
     primary_voltage 132790.562;
     secondary_voltage 7200;
     power_rating 6.2 MVA;
     impedance 0.00033+0.0022j;
}

//Start actual feeder

object substation {
     bustype SWING;
     name network_node;
     phases ABCN;
     reference_phase PHASE_A;
     positive_sequence_voltage 132790.562+0.0j;
     nominal_voltage 132790.562;
}

object transformer {
     name substation_transformer;
     from network_node;
     to GC-12-47-1_node_28;
     phases ABCN;
     configuration trans_config_to_feeder;
}

object regulator {
      name GC-12-47-1_reg_1;
      from GC-12-47-1_node_28;
      to GC-12-47-1_meter_4;
      phases ABCN;
      configuration feeder_reg_cfg;
}
object capacitor {
      name GC-12-47-1_cap_1;
      phases ABCN;
      pt_phase A;
      parent GC-12-47-1_node_21;
      phases_connected ABC;
      control VOLT;
      voltage_set_high 7300;
      voltage_set_low 7200;
      capacitor_A 0.6 MVAr;
      capacitor_B 0.6 MVAr;
      capacitor_C 0.6 MVAr;
      control_level INDIVIDUAL;
      time_delay 30.0;
      dwell_time 30.0;
      cap_nominal_voltage 7200;
      nominal_voltage 7200;
}
object fuse {
      name GC-12-47-1_fuse_1;
      phases ABCN;
      from GC-12-47-1_node_11;
      to GC-12-47-1_node_12;
      current_limit 50000;// 750;
      status CLOSED;
}
object fuse {
      name GC-12-47-1_fuse_2;
      phases ABCN;
      from GC-12-47-1_node_16;
      to GC-12-47-1_node_15;
      current_limit 50000;// 750;
      status CLOSED;
}
object fuse {
      name GC-12-47-1_fuse_3;
      phases ABCN;
      from GC-12-47-1_node_16;
      to GC-12-47-1_node_17;
      current_limit 50000;// 750;
      status CLOSED;
}

object node {
      name GC-12-47-1_load_1;
      parent GC-12-47-1_meter_1;
      phases ABCN;
      nominal_voltage 480.00;
}


object node {
      name GC-12-47-1_load_2;
      parent GC-12-47-1_meter_2;
      phases ABCN;
      nominal_voltage 480.00;
}


object node {
      name GC-12-47-1_load_3;
      parent GC-12-47-1_meter_3;
      phases ABCN;
      nominal_voltage 480.00;
}

object meter {
      name GC-12-47-1_meter_1;
      phases ABCN;
      nominal_voltage 480;
}
object meter {
      name GC-12-47-1_meter_2;
      phases ABCN;
      nominal_voltage 480;
}
object meter {
      name GC-12-47-1_meter_3;
      phases ABCN;
      nominal_voltage 480;
}
object meter {
      name GC-12-47-1_meter_4;
      phases ABCN;
      nominal_voltage 480;
}
object node {
      name GC-12-47-1_node_1;
      phases ABCN;
      voltage_A 7200+0.0j;
      voltage_B -3600-6235j;
      voltage_C -3600+6235j;
      nominal_voltage 7200;
}
object node {
      name GC-12-47-1_node_2;
      phases ABCN;
      voltage_A 7200+0.0j;
      voltage_B -3600-6235j;
      voltage_C -3600+6235j;
      nominal_voltage 7200;
}
object node {
      name GC-12-47-1_node_3;
      phases ABCN;
      voltage_A 7200+0.0j;
      voltage_B -3600-6235j;
      voltage_C -3600+6235j;
      nominal_voltage 7200;
}
object node {
      name GC-12-47-1_node_4;
      phases ABCN;
      voltage_A 7200+0.0j;
      voltage_B -3600-6235j;
      voltage_C -3600+6235j;
      nominal_voltage 7200;
}
object node {
      name GC-12-47-1_node_5;
      phases ABCN;
      voltage_A 7200+0.0j;
      voltage_B -3600-6235j;
      voltage_C -3600+6235j;
      nominal_voltage 7200;
}
object node {
      name GC-12-47-1_node_6;
      phases ABCN;
      voltage_A 7200+0.0j;
      voltage_B -3600-6235j;
      voltage_C -3600+6235j;
      nominal_voltage 7200;
}
object node {
      name GC-12-47-1_node_7;
      phases ABCN;
      voltage_A 7200+0.0j;
      voltage_B -3600-6235j;
      voltage_C -3600+6235j;
      nominal_voltage 7200;
}
object node {
      name GC-12-47-1_node_8;
      phases ABCN;
      voltage_A 7200+0.0j;
      voltage_B -3600-6235j;
      voltage_C -3600+6235j;
      nominal_voltage 7200;
}
object node {
      name GC-12-47-1_node_9;
      phases ABCN;
      voltage_A 7200+0.0j;
      voltage_B -3600-6235j;
      voltage_C -3600+6235j;
      nominal_voltage 7200;
}
object node {
      name GC-12-47-1_node_10;
      phases ABCN;
      voltage_A 7200+0.0j;
      voltage_B -3600-6235j;
      voltage_C -3600+6235j;
      nominal_voltage 7200;
}
object node {
      name GC-12-47-1_node_11;
      phases ABCN;
      voltage_A 7200+0.0j;
      voltage_B -3600-6235j;
      voltage_C -3600+6235j;
      nominal_voltage 7200;
}
object node {
      name GC-12-47-1_node_12;
      phases ABCN;
      voltage_A 7200+0.0j;
      voltage_B -3600-6235j;
      voltage_C -3600+6235j;
      nominal_voltage 7200;
}
object node {
      name GC-12-47-1_node_13;
      phases ABCN;
      voltage_A 7200+0.0j;
      voltage_B -3600-6235j;
      voltage_C -3600+6235j;
      nominal_voltage 7200;
}
object node {
      name GC-12-47-1_node_14;
      phases ABCN;
      voltage_A 7200+0.0j;
      voltage_B -3600-6235j;
      voltage_C -3600+6235j;
      nominal_voltage 7200;
}
object node {
      name GC-12-47-1_node_15;
      phases ABCN;
      voltage_A 7200+0.0j;
      voltage_B -3600-6235j;
      voltage_C -3600+6235j;
      nominal_voltage 7200;
}
object node {
      name GC-12-47-1_node_16;
      phases ABCN;
      voltage_A 7200+0.0j;
      voltage_B -3600-6235j;
      voltage_C -3600+6235j;
      nominal_voltage 7200;
}
object node {
      name GC-12-47-1_node_17;
      phases ABCN;
      voltage_A 7200+0.0j;
      voltage_B -3600-6235j;
      voltage_C -3600+6235j;
      nominal_voltage 7200;
}
object node {
      name GC-12-47-1_node_18;
      phases ABCN;
      voltage_A 7200+0.0j;
      voltage_B -3600-6235j;
      voltage_C -3600+6235j;
      nominal_voltage 7200;
}
object node {
      name GC-12-47-1_node_19;
      phases ABCN;
      voltage_A 7200+0.0j;
      voltage_B -3600-6235j;
      voltage_C -3600+6235j;
      nominal_voltage 7200;
}
object node {
      name GC-12-47-1_node_20;
      phases ABCN;
      voltage_A 7200+0.0j;
      voltage_B -3600-6235j;
      voltage_C -3600+6235j;
      nominal_voltage 7200;
}
object node {
      name GC-12-47-1_node_21;
      phases ABCN;
      voltage_A 7200+0.0j;
      voltage_B -3600-6235j;
      voltage_C -3600+6235j;
      nominal_voltage 7200;
}
object node {
      name GC-12-47-1_node_22;
      phases ABCN;
      voltage_A 7200+0.0j;
      voltage_B -3600-6235j;
      voltage_C -3600+6235j;
      nominal_voltage 7200;
}
object node {
      name GC-12-47-1_node_23;
      phases ABCN;
      voltage_A 7200+0.0j;
      voltage_B -3600-6235j;
      voltage_C -3600+6235j;
      nominal_voltage 7200;
}
object node {
      name GC-12-47-1_node_24;
      phases ABCN;
      voltage_A 7200+0.0j;
      voltage_B -3600-6235j;
      voltage_C -3600+6235j;
      nominal_voltage 7200;
}
object node {
      name GC-12-47-1_node_25;
      phases ABCN;
      voltage_A 7200+0.0j;
      voltage_B -3600-6235j;
      voltage_C -3600+6235j;
      nominal_voltage 7200;
}
object node {
      name GC-12-47-1_node_26;
      phases ABCN;
      voltage_A 7200+0.0j;
      voltage_B -3600-6235j;
      voltage_C -3600+6235j;
      nominal_voltage 7200;
}
object node {
      name GC-12-47-1_node_27;
      parent GC-12-47-1_meter_4;
      phases ABCN;
      voltage_A 7200+0.0j;
      voltage_B -3600-6235j;
      voltage_C -3600+6235j;
      nominal_voltage 7200;
}
object node {
      name GC-12-47-1_node_28;
      phases ABCN;
      nominal_voltage 7200;
      voltage_A 7200+0.0j;
      voltage_B -3600-6235j;
      voltage_C -3600+6235j;
}
object switch {
      name GC-12-47-1_switch_1;
      phases ABCN;
      from GC-12-47-1_node_21;
      to GC-12-47-1_node_20;
      status CLOSED;
}
object switch {
      name GC-12-47-1_switch_2;
      phases ABCN;
      from GC-12-47-1_node_22;
      to GC-12-47-1_node_23;
      status CLOSED;
}
object switch {
      name GC-12-47-1_switch_3;
      phases ABCN;
      from GC-12-47-1_node_10;
      to GC-12-47-1_node_25;
      status CLOSED;
}
object switch {
      name GC-12-47-1_switch_4;
      phases ABCN;
      from GC-12-47-1_node_14;
      to GC-12-47-1_node_13;
      status CLOSED;
}
object switch {
      name GC-12-47-1_switch_5;
      phases ABCN;
      from GC-12-47-1_node_19;
      to GC-12-47-1_node_18;
      status CLOSED;
}
object transformer {
      groupid Distribution_Trans;
      name GC-12-47-1_xfmr_1;
      phases ABCN;
      from GC-12-47-1_node_8;
      to GC-12-47-1_meter_1;
      configuration transformer_configuration_42;
}
object transformer {
      groupid Distribution_Trans;
      name GC-12-47-1_xfmr_2;
      phases ABCN;
      from GC-12-47-1_node_9;
      to GC-12-47-1_meter_2;
      configuration transformer_configuration_42;
}
object transformer {
      groupid Distribution_Trans;
      name GC-12-47-1_xfmr_3;
      phases ABCN;
      from GC-12-47-1_node_7;
      to GC-12-47-1_meter_3;
      configuration transformer_configuration_42;
}
object underground_line {
      groupid Distribution_Line;
      name GC-12-47-1_ul_1;
      phases ABCN;
      from GC-12-47-1_node_5;
      to GC-12-47-1_node_6;
      length 340.889;
      configuration line_configuration_6;
}
object underground_line {
      groupid Distribution_Line;
      name GC-12-47-1_ul_2;
      phases ABCN;
      from GC-12-47-1_node_4;
      to GC-12-47-1_node_5;
      length 448.867;
      configuration line_configuration_6;
}
object underground_line {
      groupid Distribution_Line;
      name GC-12-47-1_ul_3;
      phases ABCN;
      from GC-12-47-1_node_6;
      to GC-12-47-1_node_21;
      length 494.713;
      configuration line_configuration_6;
}
object underground_line {
      groupid Distribution_Line;
      name GC-12-47-1_ul_4;
      phases ABCN;
      from GC-12-47-1_node_23;
      to GC-12-47-1_node_10;
      length 10.407;
      configuration line_configuration_6;
}
object underground_line {
      groupid Distribution_Line;
      name GC-12-47-1_ul_5;
      phases ABCN;
      from GC-12-47-1_node_18;
      to GC-12-47-1_node_14;
      length 59.815;
      configuration line_configuration_6;
}
object underground_line {
      groupid Distribution_Line;
      name GC-12-47-1_ul_6;
      phases ABCN;
      from GC-12-47-1_node_15;
      to GC-12-47-1_node_8;
      length 102.239;
      configuration line_configuration_7;
}
object underground_line {
      groupid Distribution_Line;
      name GC-12-47-1_ul_7;
      phases ABCN;
      from GC-12-47-1_node_17;
      to GC-12-47-1_node_9;
      length 101.838;
      configuration line_configuration_7;
}
object underground_line {
      groupid Distribution_Line;
      name GC-12-47-1_ul_8;
      phases ABCN;
      from GC-12-47-1_node_12;
      to GC-12-47-1_node_7;
      length 89.605;
      configuration line_configuration_7;
}
object underground_line {
      groupid Distribution_Line;
      name GC-12-47-1_ul_9;
      phases ABCN;
      from GC-12-47-1_node_3;
      to GC-12-47-1_node_4;
      length 441.533;
      configuration line_configuration_8;
}
object underground_line {
      groupid Distribution_Line;
      name GC-12-47-1_ul_10;
      phases ABCN;
      from GC-12-47-1_node_2;
      to GC-12-47-1_node_3;
      length 222.528;
      configuration line_configuration_6;
}
object underground_line {
      groupid Distribution_Line;
      name GC-12-47-1_ul_11;
      phases ABCN;
      from GC-12-47-1_node_1;
      to GC-12-47-1_node_2;
      length 385.577;
      configuration line_configuration_6;
}
object underground_line {
      groupid Distribution_Line;
      name GC-12-47-1_ul_12;
      phases ABCN;
      from GC-12-47-1_node_3;
      to GC-12-47-1_node_24;
      length 17.087;
      configuration line_configuration_6;
}
object underground_line {
      groupid Distribution_Line;
      name GC-12-47-1_ul_13;
      phases ABCN;
      from GC-12-47-1_node_11;
      to GC-12-47-1_node_22;
      length 14.140;
      configuration line_configuration_6;
}
object underground_line {
      groupid Distribution_Line;
      name GC-12-47-1_ul_14;
      phases ABCN;
      from GC-12-47-1_node_13;
      to GC-12-47-1_node_11;
      length 12.958;
      configuration line_configuration_6;
}
object underground_line {
      groupid Distribution_Line;
      name GC-12-47-1_ul_15;
      phases ABCN;
      from GC-12-47-1_node_20;
      to GC-12-47-1_node_16;
      length 14.829;
      configuration line_configuration_6;
}
object underground_line {
      groupid Distribution_Line;
      name GC-12-47-1_ul_16;
      phases ABCN;
      from GC-12-47-1_node_16;
      to GC-12-47-1_node_19;
      length 12.475;
      configuration line_configuration_6;
}
object underground_line {
      groupid Distribution_Line;
      name GC-12-47-1_ul_17;
      phases ABCN;
      from GC-12-47-1_node_27;
      to GC-12-47-1_node_26;
      length 138.440;
      configuration line_configuration_6;
}
object underground_line {
      groupid Distribution_Line;
      name GC-12-47-1_ul_18;
      phases ABCN;
      from GC-12-47-1_node_26;
      to GC-12-47-1_node_1;
      length 401.610;
      configuration line_configuration_6;
}
object triplex_line_configuration {
      name commercial_line_config;
      conductor_1 object triplex_line_conductor {
            resistance 0.48;
            geometric_mean_radius 0.0158;
            };
      conductor_2 object triplex_line_conductor {
            resistance 0.48;
            geometric_mean_radius 0.0158;
            };
      conductor_N object triplex_line_conductor {
            resistance 0.48;
            geometric_mean_radius 0.0158;
            };
      insulation_thickness 0.08;
      diameter 0.522;
}

object line_spacing {
      name line_spacing_commABC;
      distance_AB 53.19999999996 in;
      distance_BC 53.19999999996 in;
      distance_AC 53.19999999996 in;
      distance_AN 69.80000000004 in;
      distance_BN 69.80000000004 in;
      distance_CN 69.80000000004 in;
}

object overhead_line_conductor {
      name overhead_line_conductor_comm;
      //name 336.4;
      rating.summer.continuous 443.0;
      geometric_mean_radius 0.02270 ft;
      resistance 0.05230;
}

object line_configuration {
      name line_configuration_commABC;
      conductor_A overhead_line_conductor_comm;
      conductor_B overhead_line_conductor_comm;
      conductor_C overhead_line_conductor_comm;
      conductor_N overhead_line_conductor_comm;
      spacing line_spacing_commABC;
}

object line_configuration {
      name line_configuration_commAB;
      conductor_A overhead_line_conductor_comm;
      conductor_B overhead_line_conductor_comm;
      conductor_N overhead_line_conductor_comm;
      spacing line_spacing_commABC;
}

object line_configuration {
      name line_configuration_commAC;
      conductor_A overhead_line_conductor_comm;
      conductor_C overhead_line_conductor_comm;
      conductor_N overhead_line_conductor_comm;
      spacing line_spacing_commABC;
}

object line_configuration {
      name line_configuration_commBC;
      conductor_B overhead_line_conductor_comm;
      conductor_C overhead_line_conductor_comm;
      conductor_N overhead_line_conductor_comm;
      spacing line_spacing_commABC;
}

object line_configuration {
      name line_configuration_commA;
      conductor_A overhead_line_conductor_comm;
      conductor_N overhead_line_conductor_comm;
      spacing line_spacing_commABC;
}

object line_configuration {
      name line_configuration_commB;
      conductor_B overhead_line_conductor_comm;
      conductor_N overhead_line_conductor_comm;
      spacing line_spacing_commABC;
}

object line_configuration {
      name line_configuration_commC;
      conductor_C overhead_line_conductor_comm;
      conductor_N overhead_line_conductor_comm;
      spacing line_spacing_commABC;
}

object transformer_configuration {
     name CTTF_config_A_GC-12-47-1_load_1;
     connect_type SINGLE_PHASE_CENTER_TAPPED;
     install_type POLETOP;
     impedance 0.00033+0.0022j;
     shunt_impedance 10000+10000j;
     primary_voltage 480.000;
     secondary_voltage 207.846;
     powerA_rating 50 kVA;
};
object transformer_configuration {
     name CTTF_config_B_GC-12-47-1_load_1;
     connect_type SINGLE_PHASE_CENTER_TAPPED;
     install_type POLETOP;
     impedance 0.00033+0.0022j;
     shunt_impedance 10000+10000j;
     primary_voltage 480.000;
     secondary_voltage 207.846;
     powerB_rating 50 kVA;
};
object transformer_configuration {
     name CTTF_config_C_GC-12-47-1_load_1;
     connect_type SINGLE_PHASE_CENTER_TAPPED;
     install_type POLETOP;
     impedance 0.00033+0.0022j;
     shunt_impedance 10000+10000j;
     primary_voltage 480.000;
     secondary_voltage 207.846;
     powerC_rating 50 kVA;
};
// 36903.696145
object overhead_line {
     from GC-12-47-1_load_1;
     to GC-12-47-1_load_1_office_meter1;
     phases ABCN;
     length 50ft;
     configuration line_configuration_commABC;
};

object meter {
     phases ABCN;
     name GC-12-47-1_load_1_office_meter1;
     groupid Commercial_Meter;
     meter_power_consumption 4+21j;
     nominal_voltage 480.000000;
}

object transformer {
     name GC-12-47-1_load_1_CTTF_A_1;
     phases AS;
     from GC-12-47-1_load_1_office_meter1;
     to GC-12-47-1_load_1_tm_A_1;
     groupid Distribution_Trans;
     configuration CTTF_config_A_GC-12-47-1_load_1;
}

object triplex_meter {
     name GC-12-47-1_load_1_tm_A_1;
     phases AS;
     nominal_voltage 120;
}

object house {
     name officeGC-12-47-1_load_1_A1_zone1;
     parent GC-12-47-1_load_1_tm_A_1;
     groupid Commercial;
     schedule_skew -1800;
     floor_area 1813;
     design_internal_gains 20044;
     number_of_doors 0;
     aspect_ratio 8.06;
     total_thermal_mass_per_floor_area 5.01;
     interior_surface_heat_transfer_coeff 0.59;
     interior_exterior_wall_ratio -0.3;
     exterior_floor_fraction 3.019;
     exterior_ceiling_fraction 0.000;
     Rwall 18.3;
     Rroof 19.0;
     Rfloor 46.00;
     Rdoors 3.0;
     exterior_wall_fraction 0.44;
     glazing_layers TWO;
     glass_type GLASS;
     glazing_treatment LOW_S;
     window_frame NONE;
     airchange_per_hour 0.69;
     window_wall_ratio 0.330;
     heating_system_type GAS;
     auxiliary_system_type NONE;
     fan_type ONE_SPEED;
     cooling_system_type ELECTRIC;
     air_temperature 68.66;
     mass_temperature 68.66;
     over_sizing_factor 0.2;
     cooling_COP 3.04;

     object controller {
           schedule_skew -1800;
           market Market_1;
           bid_mode ON;
           control_mode RAMP;
           range_high 2.061;
           range_low -0.005;
           ramp_high 2.588;
           ramp_low 2.588;
           base_setpoint office_cooling;
           period 300;
           average_target current_price_mean_24h;
           standard_deviation_target current_price_stdev_24h;
           target air_temperature;
           setpoint cooling_setpoint;
           demand last_cooling_load;
           deadband thermostat_deadband;
           total hvac_load;
           load hvac_load;
           state power_state;
       };

     cooling_setpoint 85;
     heating_setpoint office_heating;
     // Lights
     object ZIPload {
          name lights_GC-12-47-1_load_1_A_1_zone1;
          schedule_skew -1800;
          heatgain_fraction 1.0;
          power_fraction 0.40;
          impedance_fraction 0.20;
          current_fraction 0.40;
          power_pf 1.00;
          current_pf 1.00;
          impedance_pf 1.00;
          base_power office_lights*1.70;
     };

     // Plugs
     object ZIPload {
          name plugs_GC-12-47-1_load_1_A_1_zone1;
          schedule_skew -1800;
          heatgain_fraction 1.0;
          power_fraction 0.40;
          impedance_fraction 0.20;
          current_fraction 0.40;
          power_pf 1.00;
          current_pf 1.00;
          impedance_pf 1.00;
          base_power office_plugs*1.79;
     };

     // Gas Waterheater
     object ZIPload {
          name wh_GC-12-47-1_load_1_A_1_zone1;
          schedule_skew -1800;
          heatgain_fraction 1.0;
          power_fraction 0.0;
          impedance_fraction 0.0;
          current_fraction 0.0;
          power_pf 1.0;
          base_power office_gas*1.67;
     };

     // Exterior Lighting
     object ZIPload {
          name ext_GC-12-47-1_load_1_A_1_zone1;
          schedule_skew -1800;
          heatgain_fraction 0.0;
          power_fraction 0.40;
          impedance_fraction 0.20;
          current_fraction 0.40;
          power_pf 1.00;
          current_pf 1.00;
          impedance_pf 1.00;
          base_power office_exterior*1.73;
     };

     // Occupancy
     object ZIPload {
          name occ_GC-12-47-1_load_1_A_1_zone1;
          schedule_skew -1800;
          heatgain_fraction 1.0;
          power_fraction 0.0;
          impedance_fraction 0.0;
          current_fraction 0.0;
          power_pf 1.0;
          base_power office_occupancy*1.72;
     };
}

object house {
     name officeGC-12-47-1_load_1_A1_zone2;
     parent GC-12-47-1_load_1_tm_A_1;
     groupid Commercial;
     schedule_skew -1800;
     floor_area 1133;
     design_internal_gains 12533;
     number_of_doors 0;
     aspect_ratio 5.04;
     total_thermal_mass_per_floor_area 2.59;
     interior_surface_heat_transfer_coeff 0.59;
     interior_exterior_wall_ratio -0.4;
     exterior_floor_fraction 4.528;
     exterior_ceiling_fraction 0.000;
     Rwall 18.3;
     Rroof 19.0;
     Rfloor 46.00;
     Rdoors 3.0;
     exterior_wall_fraction 0.42;
     glazing_layers TWO;
     glass_type GLASS;
     glazing_treatment LOW_S;
     window_frame NONE;
     airchange_per_hour 0.69;
     window_wall_ratio 0.330;
     heating_system_type GAS;
     auxiliary_system_type NONE;
     fan_type ONE_SPEED;
     cooling_system_type ELECTRIC;
     air_temperature 68.19;
     mass_temperature 68.19;
     over_sizing_factor 0.2;
     cooling_COP 2.85;

     object controller {
           schedule_skew -1800;
           market Market_1;
           bid_mode ON;
           control_mode RAMP;
           range_high 2.061;
           range_low -0.005;
           ramp_high 2.588;
           ramp_low 2.588;
           base_setpoint office_cooling;
           period 300;
           average_target current_price_mean_24h;
           standard_deviation_target current_price_stdev_24h;
           target air_temperature;
           setpoint cooling_setpoint;
           demand last_cooling_load;
           deadband thermostat_deadband;
           total hvac_load;
           load hvac_load;
           state power_state;
       };

     cooling_setpoint 85;
     heating_setpoint office_heating;
     // Lights
     object ZIPload {
          name lights_GC-12-47-1_load_1_A_1_zone2;
          schedule_skew -1800;
          heatgain_fraction 1.0;
          power_fraction 0.40;
          impedance_fraction 0.20;
          current_fraction 0.40;
          power_pf 1.00;
          current_pf 1.00;
          impedance_pf 1.00;
          base_power office_lights*1.08;
     };

     // Plugs
     object ZIPload {
          name plugs_GC-12-47-1_load_1_A_1_zone2;
          schedule_skew -1800;
          heatgain_fraction 1.0;
          power_fraction 0.40;
          impedance_fraction 0.20;
          current_fraction 0.40;
          power_pf 1.00;
          current_pf 1.00;
          impedance_pf 1.00;
          base_power office_plugs*1.23;
     };

     // Gas Waterheater
     object ZIPload {
          name wh_GC-12-47-1_load_1_A_1_zone2;
          schedule_skew -1800;
          heatgain_fraction 1.0;
          power_fraction 0.0;
          impedance_fraction 0.0;
          current_fraction 0.0;
          power_pf 1.0;
          base_power office_gas*1.07;
     };

     // Exterior Lighting
     object ZIPload {
          name ext_GC-12-47-1_load_1_A_1_zone2;
          schedule_skew -1800;
          heatgain_fraction 0.0;
          power_fraction 0.40;
          impedance_fraction 0.20;
          current_fraction 0.40;
          power_pf 1.00;
          current_pf 1.00;
          impedance_pf 1.00;
          base_power office_exterior*1.07;
     };

     // Occupancy
     object ZIPload {
          name occ_GC-12-47-1_load_1_A_1_zone2;
          schedule_skew -1800;
          heatgain_fraction 1.0;
          power_fraction 0.0;
          impedance_fraction 0.0;
          current_fraction 0.0;
          power_pf 1.0;
          base_power office_occupancy*1.03;
     };
}

object house {
     name officeGC-12-47-1_load_1_A1_zone3;
     parent GC-12-47-1_load_1_tm_A_1;
     groupid Commercial;
     schedule_skew -1800;
     floor_area 1813;
     design_internal_gains 20044;
     number_of_doors 0;
     aspect_ratio 8.06;
     total_thermal_mass_per_floor_area 2.01;
     interior_surface_heat_transfer_coeff 0.59;
     interior_exterior_wall_ratio -0.3;
     exterior_floor_fraction 3.019;
     exterior_ceiling_fraction 0.000;
     Rwall 18.3;
     Rroof 19.0;
     Rfloor 46.00;
     Rdoors 3.0;
     exterior_wall_fraction 0.44;
     glazing_layers TWO;
     glass_type GLASS;
     glazing_treatment LOW_S;
     window_frame NONE;
     airchange_per_hour 0.69;
     window_wall_ratio 0.330;
     heating_system_type GAS;
     auxiliary_system_type NONE;
     fan_type ONE_SPEED;
     cooling_system_type ELECTRIC;
     air_temperature 70.18;
     mass_temperature 70.18;
     over_sizing_factor 0.2;
     cooling_COP 2.96;

     object controller {
           schedule_skew -1800;
           market Market_1;
           bid_mode ON;
           control_mode RAMP;
           range_high 2.061;
           range_low -0.005;
           ramp_high 2.588;
           ramp_low 2.588;
           base_setpoint office_cooling;
           period 300;
           average_target current_price_mean_24h;
           standard_deviation_target current_price_stdev_24h;
           target air_temperature;
           setpoint cooling_setpoint;
           demand last_cooling_load;
           deadband thermostat_deadband;
           total hvac_load;
           load hvac_load;
           state power_state;
       };

     cooling_setpoint 85;
     heating_setpoint office_heating;
     // Lights
     object ZIPload {
          name lights_GC-12-47-1_load_1_A_1_zone3;
          schedule_skew -1800;
          heatgain_fraction 1.0;
          power_fraction 0.40;
          impedance_fraction 0.20;
          current_fraction 0.40;
          power_pf 1.00;
          current_pf 1.00;
          impedance_pf 1.00;
          base_power office_lights*1.79;
     };

     // Plugs
     object ZIPload {
          name plugs_GC-12-47-1_load_1_A_1_zone3;
          schedule_skew -1800;
          heatgain_fraction 1.0;
          power_fraction 0.40;
          impedance_fraction 0.20;
          current_fraction 0.40;
          power_pf 1.00;
          current_pf 1.00;
          impedance_pf 1.00;
          base_power office_plugs*1.79;
     };

     // Gas Waterheater
     object ZIPload {
          name wh_GC-12-47-1_load_1_A_1_zone3;
          schedule_skew -1800;
          heatgain_fraction 1.0;
          power_fraction 0.0;
          impedance_fraction 0.0;
          current_fraction 0.0;
          power_pf 1.0;
          base_power office_gas*1.85;
     };

     // Exterior Lighting
     object ZIPload {
          name ext_GC-12-47-1_load_1_A_1_zone3;
          schedule_skew -1800;
          heatgain_fraction 0.0;
          power_fraction 0.40;
          impedance_fraction 0.20;
          current_fraction 0.40;
          power_pf 1.00;
          current_pf 1.00;
          impedance_pf 1.00;
          base_power office_exterior*1.65;
     };

     // Occupancy
     object ZIPload {
          name occ_GC-12-47-1_load_1_A_1_zone3;
          schedule_skew -1800;
          heatgain_fraction 1.0;
          power_fraction 0.0;
          impedance_fraction 0.0;
          current_fraction 0.0;
          power_pf 1.0;
          base_power office_occupancy*1.75;
     };
}

object house {
     name officeGC-12-47-1_load_1_A1_zone4;
     parent GC-12-47-1_load_1_tm_A_1;
     groupid Commercial;
     schedule_skew -1800;
     floor_area 1133;
     design_internal_gains 12533;
     number_of_doors 0;
     aspect_ratio 5.04;
     total_thermal_mass_per_floor_area 5.81;
     interior_surface_heat_transfer_coeff 0.59;
     interior_exterior_wall_ratio -0.4;
     exterior_floor_fraction 4.528;
     exterior_ceiling_fraction 0.000;
     Rwall 18.3;
     Rroof 19.0;
     Rfloor 46.00;
     Rdoors 3.0;
     exterior_wall_fraction 0.42;
     glazing_layers TWO;
     glass_type GLASS;
     glazing_treatment LOW_S;
     window_frame NONE;
     airchange_per_hour 0.69;
     window_wall_ratio 0.330;
     heating_system_type GAS;
     auxiliary_system_type NONE;
     fan_type ONE_SPEED;
     cooling_system_type ELECTRIC;
     air_temperature 69.53;
     mass_temperature 69.53;
     over_sizing_factor 0.2;
     cooling_COP 3.45;

     object controller {
           schedule_skew -1800;
           market Market_1;
           bid_mode ON;
           control_mode RAMP;
           range_high 2.061;
           range_low -0.005;
           ramp_high 2.588;
           ramp_low 2.588;
           base_setpoint office_cooling;
           period 300;
           average_target current_price_mean_24h;
           standard_deviation_target current_price_stdev_24h;
           target air_temperature;
           setpoint cooling_setpoint;
           demand last_cooling_load;
           deadband thermostat_deadband;
           total hvac_load;
           load hvac_load;
           state power_state;
       };

     cooling_setpoint 85;
     heating_setpoint office_heating;
     // Lights
     object ZIPload {
          name lights_GC-12-47-1_load_1_A_1_zone4;
          schedule_skew -1800;
          heatgain_fraction 1.0;
          power_fraction 0.40;
          impedance_fraction 0.20;
          current_fraction 0.40;
          power_pf 1.00;
          current_pf 1.00;
          impedance_pf 1.00;
          base_power office_lights*1.03;
     };

     // Plugs
     object ZIPload {
          name plugs_GC-12-47-1_load_1_A_1_zone4;
          schedule_skew -1800;
          heatgain_fraction 1.0;
          power_fraction 0.40;
          impedance_fraction 0.20;
          current_fraction 0.40;
          power_pf 1.00;
          current_pf 1.00;
          impedance_pf 1.00;
          base_power office_plugs*1.23;
     };

     // Gas Waterheater
     object ZIPload {
          name wh_GC-12-47-1_load_1_A_1_zone4;
          schedule_skew -1800;
          heatgain_fraction 1.0;
          power_fraction 0.0;
          impedance_fraction 0.0;
          current_fraction 0.0;
          power_pf 1.0;
          base_power office_gas*1.02;
     };

     // Exterior Lighting
     object ZIPload {
          name ext_GC-12-47-1_load_1_A_1_zone4;
          schedule_skew -1800;
          heatgain_fraction 0.0;
          power_fraction 0.40;
          impedance_fraction 0.20;
          current_fraction 0.40;
          power_pf 1.00;
          current_pf 1.00;
          impedance_pf 1.00;
          base_power office_exterior*1.12;
     };

     // Occupancy
     object ZIPload {
          name occ_GC-12-47-1_load_1_A_1_zone4;
          schedule_skew -1800;
          heatgain_fraction 1.0;
          power_fraction 0.0;
          impedance_fraction 0.0;
          current_fraction 0.0;
          power_pf 1.0;
          base_power office_occupancy*1.05;
     };
}

object house {
     name officeGC-12-47-1_load_1_A1_zone5;
     parent GC-12-47-1_load_1_tm_A_1;
     groupid Commercial;
     schedule_skew -1800;
     floor_area 6409;
     design_internal_gains 70875;
     number_of_doors 0;
     aspect_ratio 0.57;
     total_thermal_mass_per_floor_area 4.29;
     interior_surface_heat_transfer_coeff 0.59;
     interior_exterior_wall_ratio 0.5;
     exterior_floor_fraction 0.349;
     exterior_ceiling_fraction 0.000;
     Rwall 18.3;
     Rroof 19.0;
     Rfloor 46.00;
     Rdoors 3.0;
     exterior_wall_fraction 0.00;
     glazing_layers TWO;
     glass_type GLASS;
     glazing_treatment LOW_S;
     window_frame NONE;
     airchange_per_hour 0.69;
     window_wall_ratio 0.330;
     heating_system_type GAS;
     auxiliary_system_type NONE;
     fan_type ONE_SPEED;
     cooling_system_type ELECTRIC;
     air_temperature 69.04;
     mass_temperature 69.04;
     over_sizing_factor 0.2;
     cooling_COP 3.34;

     object controller {
           schedule_skew -1800;
           market Market_1;
           bid_mode ON;
           control_mode RAMP;
           range_high 2.061;
           range_low -0.005;
           ramp_high 2.588;
           ramp_low 2.588;
           base_setpoint office_cooling;
           period 300;
           average_target current_price_mean_24h;
           standard_deviation_target current_price_stdev_24h;
           target air_temperature;
           setpoint cooling_setpoint;
           demand last_cooling_load;
           deadband thermostat_deadband;
           total hvac_load;
           load hvac_load;
           state power_state;
       };

     cooling_setpoint 85;
     heating_setpoint office_heating;
     // Lights
     object ZIPload {
          name lights_GC-12-47-1_load_1_A_1_zone5;
          schedule_skew -1800;
          heatgain_fraction 1.0;
          power_fraction 0.40;
          impedance_fraction 0.20;
          current_fraction 0.40;
          power_pf 1.00;
          current_pf 1.00;
          impedance_pf 1.00;
          base_power office_lights*6.29;
     };

     // Plugs
     object ZIPload {
          name plugs_GC-12-47-1_load_1_A_1_zone5;
          schedule_skew -1800;
          heatgain_fraction 1.0;
          power_fraction 0.40;
          impedance_fraction 0.20;
          current_fraction 0.40;
          power_pf 1.00;
          current_pf 1.00;
          impedance_pf 1.00;
          base_power office_plugs*6.97;
     };

     // Gas Waterheater
     object ZIPload {
          name wh_GC-12-47-1_load_1_A_1_zone5;
          schedule_skew -1800;
          heatgain_fraction 1.0;
          power_fraction 0.0;
          impedance_fraction 0.0;
          current_fraction 0.0;
          power_pf 1.0;
          base_power office_gas*6.78;
     };

     // Exterior Lighting
     object ZIPload {
          name ext_GC-12-47-1_load_1_A_1_zone5;
          schedule_skew -1800;
          heatgain_fraction 0.0;
          power_fraction 0.40;
          impedance_fraction 0.20;
          current_fraction 0.40;
          power_pf 1.00;
          current_pf 1.00;
          impedance_pf 1.00;
          base_power office_exterior*6.10;
     };

     // Occupancy
     object ZIPload {
          name occ_GC-12-47-1_load_1_A_1_zone5;
          schedule_skew -1800;
          heatgain_fraction 1.0;
          power_fraction 0.0;
          impedance_fraction 0.0;
          current_fraction 0.0;
          power_pf 1.0;
          base_power office_occupancy*6.39;
     };
}

object transformer {
     name GC-12-47-1_load_1_CTTF_B_1;
     phases BS;
     from GC-12-47-1_load_1_office_meter1;
     to GC-12-47-1_load_1_tm_B_1;
     groupid Distribution_Trans;
     configuration CTTF_config_B_GC-12-47-1_load_1;
}

object triplex_meter {
     name GC-12-47-1_load_1_tm_B_1;
     phases BS;
     nominal_voltage 120;
}

object house {
     name officeGC-12-47-1_load_1_B1_zone1;
     parent GC-12-47-1_load_1_tm_B_1;
     groupid Commercial;
     schedule_skew -3600;
     floor_area 1813;
     design_internal_gains 20044;
     number_of_doors 0;
     aspect_ratio 8.06;
     total_thermal_mass_per_floor_area 3.39;
     interior_surface_heat_transfer_coeff 0.59;
     interior_exterior_wall_ratio -0.3;
     exterior_floor_fraction 0.000;
     exterior_ceiling_fraction 0.000;
     Rwall 18.3;
     Rroof 19.0;
     Rfloor 46.00;
     Rdoors 3.0;
     exterior_wall_fraction 0.44;
     glazing_layers TWO;
     glass_type GLASS;
     glazing_treatment LOW_S;
     window_frame NONE;
     airchange_per_hour 0.69;
     window_wall_ratio 0.330;
     heating_system_type GAS;
     auxiliary_system_type NONE;
     fan_type ONE_SPEED;
     cooling_system_type ELECTRIC;
     air_temperature 69.22;
     mass_temperature 69.22;
     over_sizing_factor 0.2;
     cooling_COP 3.49;

     object controller {
           schedule_skew -3600;
           market Market_1;
           bid_mode ON;
           control_mode RAMP;
           range_high 2.061;
           range_low -0.005;
           ramp_high 2.588;
           ramp_low 2.588;
           base_setpoint office_cooling;
           period 300;
           average_target current_price_mean_24h;
           standard_deviation_target current_price_stdev_24h;
           target air_temperature;
           setpoint cooling_setpoint;
           demand last_cooling_load;
           deadband thermostat_deadband;
           total hvac_load;
           load hvac_load;
           state power_state;
       };

     cooling_setpoint 85;
     heating_setpoint office_heating;
     // Lights
     object ZIPload {
          name lights_GC-12-47-1_load_1_B_1_zone1;
          schedule_skew -3600;
          heatgain_fraction 1.0;
          power_fraction 0.40;
          impedance_fraction 0.20;
          current_fraction 0.40;
          power_pf 1.00;
          current_pf 1.00;
          impedance_pf 1.00;
          base_power office_lights*1.66;
     };

     // Plugs
     object ZIPload {
          name plugs_GC-12-47-1_load_1_B_1_zone1;
          schedule_skew -3600;
          heatgain_fraction 1.0;
          power_fraction 0.40;
          impedance_fraction 0.20;
          current_fraction 0.40;
          power_pf 1.00;
          current_pf 1.00;
          impedance_pf 1.00;
          base_power office_plugs*1.87;
     };

     // Gas Waterheater
     object ZIPload {
          name wh_GC-12-47-1_load_1_B_1_zone1;
          schedule_skew -3600;
          heatgain_fraction 1.0;
          power_fraction 0.0;
          impedance_fraction 0.0;
          current_fraction 0.0;
          power_pf 1.0;
          base_power office_gas*1.68;
     };

     // Exterior Lighting
     object ZIPload {
          name ext_GC-12-47-1_load_1_B_1_zone1;
          schedule_skew -3600;
          heatgain_fraction 0.0;
          power_fraction 0.40;
          impedance_fraction 0.20;
          current_fraction 0.40;
          power_pf 1.00;
          current_pf 1.00;
          impedance_pf 1.00;
          base_power office_exterior*1.75;
     };

     // Occupancy
     object ZIPload {
          name occ_GC-12-47-1_load_1_B_1_zone1;
          schedule_skew -3600;
          heatgain_fraction 1.0;
          power_fraction 0.0;
          impedance_fraction 0.0;
          current_fraction 0.0;
          power_pf 1.0;
          base_power office_occupancy*1.67;
     };
}

object house {
     name officeGC-12-47-1_load_1_B1_zone2;
     parent GC-12-47-1_load_1_tm_B_1;
     groupid Commercial;
     schedule_skew -3600;
     floor_area 1133;
     design_internal_gains 12533;
     number_of_doors 0;
     aspect_ratio 5.04;
     total_thermal_mass_per_floor_area 2.85;
     interior_surface_heat_transfer_coeff 0.59;
     interior_exterior_wall_ratio -0.4;
     exterior_floor_fraction 0.000;
     exterior_ceiling_fraction 0.000;
     Rwall 18.3;
     Rroof 19.0;
     Rfloor 46.00;
     Rdoors 3.0;
     exterior_wall_fraction 0.42;
     glazing_layers TWO;
     glass_type GLASS;
     glazing_treatment LOW_S;
     window_frame NONE;
     airchange_per_hour 0.69;
     window_wall_ratio 0.330;
     heating_system_type GAS;
     auxiliary_system_type NONE;
     fan_type ONE_SPEED;
     cooling_system_type ELECTRIC;
     air_temperature 68.20;
     mass_temperature 68.20;
     over_sizing_factor 0.2;
     cooling_COP 2.79;

     object controller {
           schedule_skew -3600;
           market Market_1;
           bid_mode ON;
           control_mode RAMP;
           range_high 2.061;
           range_low -0.005;
           ramp_high 2.588;
           ramp_low 2.588;
           base_setpoint office_cooling;
           period 300;
           average_target current_price_mean_24h;
           standard_deviation_target current_price_stdev_24h;
           target air_temperature;
           setpoint cooling_setpoint;
           demand last_cooling_load;
           deadband thermostat_deadband;
           total hvac_load;
           load hvac_load;
           state power_state;
       };

     cooling_setpoint 85;
     heating_setpoint office_heating;
     // Lights
     object ZIPload {
          name lights_GC-12-47-1_load_1_B_1_zone2;
          schedule_skew -3600;
          heatgain_fraction 1.0;
          power_fraction 0.40;
          impedance_fraction 0.20;
          current_fraction 0.40;
          power_pf 1.00;
          current_pf 1.00;
          impedance_pf 1.00;
          base_power office_lights*1.02;
     };

     // Plugs
     object ZIPload {
          name plugs_GC-12-47-1_load_1_B_1_zone2;
          schedule_skew -3600;
          heatgain_fraction 1.0;
          power_fraction 0.40;
          impedance_fraction 0.20;
          current_fraction 0.40;
          power_pf 1.00;
          current_pf 1.00;
          impedance_pf 1.00;
          base_power office_plugs*1.05;
     };

     // Gas Waterheater
     object ZIPload {
          name wh_GC-12-47-1_load_1_B_1_zone2;
          schedule_skew -3600;
          heatgain_fraction 1.0;
          power_fraction 0.0;
          impedance_fraction 0.0;
          current_fraction 0.0;
          power_pf 1.0;
          base_power office_gas*1.11;
     };

     // Exterior Lighting
     object ZIPload {
          name ext_GC-12-47-1_load_1_B_1_zone2;
          schedule_skew -3600;
          heatgain_fraction 0.0;
          power_fraction 0.40;
          impedance_fraction 0.20;
          current_fraction 0.40;
          power_pf 1.00;
          current_pf 1.00;
          impedance_pf 1.00;
          base_power office_exterior*1.02;
     };

     // Occupancy
     object ZIPload {
          name occ_GC-12-47-1_load_1_B_1_zone2;
          schedule_skew -3600;
          heatgain_fraction 1.0;
          power_fraction 0.0;
          impedance_fraction 0.0;
          current_fraction 0.0;
          power_pf 1.0;
          base_power office_occupancy*1.10;
     };
}

object house {
     name officeGC-12-47-1_load_1_B1_zone3;
     parent GC-12-47-1_load_1_tm_B_1;
     groupid Commercial;
     schedule_skew -3600;
     floor_area 1813;
     design_internal_gains 20044;
     number_of_doors 0;
     aspect_ratio 8.06;
     total_thermal_mass_per_floor_area 3.63;
     interior_surface_heat_transfer_coeff 0.59;
     interior_exterior_wall_ratio -0.3;
     exterior_floor_fraction 0.000;
     exterior_ceiling_fraction 0.000;
     Rwall 18.3;
     Rroof 19.0;
     Rfloor 46.00;
     Rdoors 3.0;
     exterior_wall_fraction 0.44;
     glazing_layers TWO;
     glass_type GLASS;
     glazing_treatment LOW_S;
     window_frame NONE;
     airchange_per_hour 0.69;
     window_wall_ratio 0.330;
     heating_system_type GAS;
     auxiliary_system_type NONE;
     fan_type ONE_SPEED;
     cooling_system_type ELECTRIC;
     air_temperature 71.62;
     mass_temperature 71.62;
     over_sizing_factor 0.2;
     cooling_COP 2.75;

     object controller {
           schedule_skew -3600;
           market Market_1;
           bid_mode ON;
           control_mode RAMP;
           range_high 2.061;
           range_low -0.005;
           ramp_high 2.588;
           ramp_low 2.588;
           base_setpoint office_cooling;
           period 300;
           average_target current_price_mean_24h;
           standard_deviation_target current_price_stdev_24h;
           target air_temperature;
           setpoint cooling_setpoint;
           demand last_cooling_load;
           deadband thermostat_deadband;
           total hvac_load;
           load hvac_load;
           state power_state;
       };

     cooling_setpoint 85;
     heating_setpoint office_heating;
     // Lights
     object ZIPload {
          name lights_GC-12-47-1_load_1_B_1_zone3;
          schedule_skew -3600;
          heatgain_fraction 1.0;
          power_fraction 0.40;
          impedance_fraction 0.20;
          current_fraction 0.40;
          power_pf 1.00;
          current_pf 1.00;
          impedance_pf 1.00;
          base_power office_lights*1.80;
     };

     // Plugs
     object ZIPload {
          name plugs_GC-12-47-1_load_1_B_1_zone3;
          schedule_skew -3600;
          heatgain_fraction 1.0;
          power_fraction 0.40;
          impedance_fraction 0.20;
          current_fraction 0.40;
          power_pf 1.00;
          current_pf 1.00;
          impedance_pf 1.00;
          base_power office_plugs*1.81;
     };

     // Gas Waterheater
     object ZIPload {
          name wh_GC-12-47-1_load_1_B_1_zone3;
          schedule_skew -3600;
          heatgain_fraction 1.0;
          power_fraction 0.0;
          impedance_fraction 0.0;
          current_fraction 0.0;
          power_pf 1.0;
          base_power office_gas*1.91;
     };

     // Exterior Lighting
     object ZIPload {
          name ext_GC-12-47-1_load_1_B_1_zone3;
          schedule_skew -3600;
          heatgain_fraction 0.0;
          power_fraction 0.40;
          impedance_fraction 0.20;
          current_fraction 0.40;
          power_pf 1.00;
          current_pf 1.00;
          impedance_pf 1.00;
          base_power office_exterior*1.74;
     };

     // Occupancy
     object ZIPload {
          name occ_GC-12-47-1_load_1_B_1_zone3;
          schedule_skew -3600;
          heatgain_fraction 1.0;
          power_fraction 0.0;
          impedance_fraction 0.0;
          current_fraction 0.0;
          power_pf 1.0;
          base_power office_occupancy*1.75;
     };
}

object house {
     name officeGC-12-47-1_load_1_B1_zone4;
     parent GC-12-47-1_load_1_tm_B_1;
     groupid Commercial;
     schedule_skew -3600;
     floor_area 1133;
     design_internal_gains 12533;
     number_of_doors 0;
     aspect_ratio 5.04;
     total_thermal_mass_per_floor_area 5.10;
     interior_surface_heat_transfer_coeff 0.59;
     interior_exterior_wall_ratio -0.4;
     exterior_floor_fraction 0.000;
     exterior_ceiling_fraction 0.000;
     Rwall 18.3;
     Rroof 19.0;
     Rfloor 46.00;
     Rdoors 3.0;
     exterior_wall_fraction 0.42;
     glazing_layers TWO;
     glass_type GLASS;
     glazing_treatment LOW_S;
     window_frame NONE;
     airchange_per_hour 0.69;
     window_wall_ratio 0.330;
     heating_system_type GAS;
     auxiliary_system_type NONE;
     fan_type ONE_SPEED;
     cooling_system_type ELECTRIC;
     air_temperature 68.00;
     mass_temperature 68.00;
     over_sizing_factor 0.2;
     cooling_COP 2.48;

     object controller {
           schedule_skew -3600;
           market Market_1;
           bid_mode ON;
           control_mode RAMP;
           range_high 2.061;
           range_low -0.005;
           ramp_high 2.588;
           ramp_low 2.588;
           base_setpoint office_cooling;
           period 300;
           average_target current_price_mean_24h;
           standard_deviation_target current_price_stdev_24h;
           target air_temperature;
           setpoint cooling_setpoint;
           demand last_cooling_load;
           deadband thermostat_deadband;
           total hvac_load;
           load hvac_load;
           state power_state;
       };

     cooling_setpoint 85;
     heating_setpoint office_heating;
     // Lights
     object ZIPload {
          name lights_GC-12-47-1_load_1_B_1_zone4;
          schedule_skew -3600;
          heatgain_fraction 1.0;
          power_fraction 0.40;
          impedance_fraction 0.20;
          current_fraction 0.40;
          power_pf 1.00;
          current_pf 1.00;
          impedance_pf 1.00;
          base_power office_lights*1.12;
     };

     // Plugs
     object ZIPload {
          name plugs_GC-12-47-1_load_1_B_1_zone4;
          schedule_skew -3600;
          heatgain_fraction 1.0;
          power_fraction 0.40;
          impedance_fraction 0.20;
          current_fraction 0.40;
          power_pf 1.00;
          current_pf 1.00;
          impedance_pf 1.00;
          base_power office_plugs*1.25;
     };

     // Gas Waterheater
     object ZIPload {
          name wh_GC-12-47-1_load_1_B_1_zone4;
          schedule_skew -3600;
          heatgain_fraction 1.0;
          power_fraction 0.0;
          impedance_fraction 0.0;
          current_fraction 0.0;
          power_pf 1.0;
          base_power office_gas*1.04;
     };

     // Exterior Lighting
     object ZIPload {
          name ext_GC-12-47-1_load_1_B_1_zone4;
          schedule_skew -3600;
          heatgain_fraction 0.0;
          power_fraction 0.40;
          impedance_fraction 0.20;
          current_fraction 0.40;
          power_pf 1.00;
          current_pf 1.00;
          impedance_pf 1.00;
          base_power office_exterior*1.12;
     };

     // Occupancy
     object ZIPload {
          name occ_GC-12-47-1_load_1_B_1_zone4;
          schedule_skew -3600;
          heatgain_fraction 1.0;
          power_fraction 0.0;
          impedance_fraction 0.0;
          current_fraction 0.0;
          power_pf 1.0;
          base_power office_occupancy*1.12;
     };
}

object house {
     name officeGC-12-47-1_load_1_B1_zone5;
     parent GC-12-47-1_load_1_tm_B_1;
     groupid Commercial;
     schedule_skew -3600;
     floor_area 6409;
     design_internal_gains 70875;
     number_of_doors 0;
     aspect_ratio 0.57;
     total_thermal_mass_per_floor_area 2.15;
     interior_surface_heat_transfer_coeff 0.59;
     interior_exterior_wall_ratio 0.5;
     exterior_floor_fraction 0.000;
     exterior_ceiling_fraction 0.000;
     Rwall 18.3;
     Rroof 19.0;
     Rfloor 46.00;
     Rdoors 3.0;
     exterior_wall_fraction 0.00;
     glazing_layers TWO;
     glass_type GLASS;
     glazing_treatment LOW_S;
     window_frame NONE;
     airchange_per_hour 0.69;
     window_wall_ratio 0.330;
     heating_system_type GAS;
     auxiliary_system_type NONE;
     fan_type ONE_SPEED;
     cooling_system_type ELECTRIC;
     air_temperature 70.01;
     mass_temperature 70.01;
     over_sizing_factor 0.2;
     cooling_COP 3.55;

     object controller {
           schedule_skew -3600;
           market Market_1;
           bid_mode ON;
           control_mode RAMP;
           range_high 2.061;
           range_low -0.005;
           ramp_high 2.588;
           ramp_low 2.588;
           base_setpoint office_cooling;
           period 300;
           average_target current_price_mean_24h;
           standard_deviation_target current_price_stdev_24h;
           target air_temperature;
           setpoint cooling_setpoint;
           demand last_cooling_load;
           deadband thermostat_deadband;
           total hvac_load;
           load hvac_load;
           state power_state;
       };

     cooling_setpoint 85;
     heating_setpoint office_heating;
     // Lights
     object ZIPload {
          name lights_GC-12-47-1_load_1_B_1_zone5;
          schedule_skew -3600;
          heatgain_fraction 1.0;
          power_fraction 0.40;
          impedance_fraction 0.20;
          current_fraction 0.40;
          power_pf 1.00;
          current_pf 1.00;
          impedance_pf 1.00;
          base_power office_lights*6.25;
     };

     // Plugs
     object ZIPload {
          name plugs_GC-12-47-1_load_1_B_1_zone5;
          schedule_skew -3600;
          heatgain_fraction 1.0;
          power_fraction 0.40;
          impedance_fraction 0.20;
          current_fraction 0.40;
          power_pf 1.00;
          current_pf 1.00;
          impedance_pf 1.00;
          base_power office_plugs*6.18;
     };

     // Gas Waterheater
     object ZIPload {
          name wh_GC-12-47-1_load_1_B_1_zone5;
          schedule_skew -3600;
          heatgain_fraction 1.0;
          power_fraction 0.0;
          impedance_fraction 0.0;
          current_fraction 0.0;
          power_pf 1.0;
          base_power office_gas*6.89;
     };

     // Exterior Lighting
     object ZIPload {
          name ext_GC-12-47-1_load_1_B_1_zone5;
          schedule_skew -3600;
          heatgain_fraction 0.0;
          power_fraction 0.40;
          impedance_fraction 0.20;
          current_fraction 0.40;
          power_pf 1.00;
          current_pf 1.00;
          impedance_pf 1.00;
          base_power office_exterior*5.99;
     };

     // Occupancy
     object ZIPload {
          name occ_GC-12-47-1_load_1_B_1_zone5;
          schedule_skew -3600;
          heatgain_fraction 1.0;
          power_fraction 0.0;
          impedance_fraction 0.0;
          current_fraction 0.0;
          power_pf 1.0;
          base_power office_occupancy*6.32;
     };
}

object transformer {
     name GC-12-47-1_load_1_CTTF_C_1;
     phases CS;
     from GC-12-47-1_load_1_office_meter1;
     to GC-12-47-1_load_1_tm_C_1;
     groupid Distribution_Trans;
     configuration CTTF_config_C_GC-12-47-1_load_1;
}

object triplex_meter {
     name GC-12-47-1_load_1_tm_C_1;
     phases CS;
     nominal_voltage 120;
}

object house {
     name officeGC-12-47-1_load_1_C1_zone1;
     parent GC-12-47-1_load_1_tm_C_1;
     groupid Commercial;
     schedule_skew 0;
     floor_area 1813;
     design_internal_gains 20044;
     number_of_doors 0;
     aspect_ratio 8.06;
     total_thermal_mass_per_floor_area 2.86;
     interior_surface_heat_transfer_coeff 0.59;
     interior_exterior_wall_ratio -0.3;
     exterior_floor_fraction 0.000;
     exterior_ceiling_fraction 1.000;
     Rwall 18.3;
     Rroof 19.0;
     Rfloor 46.00;
     Rdoors 3.0;
     exterior_wall_fraction 0.44;
     glazing_layers TWO;
     glass_type GLASS;
     glazing_treatment LOW_S;
     window_frame NONE;
     airchange_per_hour 0.69;
     window_wall_ratio 0.330;
     heating_system_type GAS;
     auxiliary_system_type NONE;
     fan_type ONE_SPEED;
     cooling_system_type ELECTRIC;
     air_temperature 71.54;
     mass_temperature 71.54;
     over_sizing_factor 0.2;
     cooling_COP 3.12;

     object controller {
           schedule_skew 0;
           market Market_1;
           bid_mode ON;
           control_mode RAMP;
           range_high 2.061;
           range_low -0.005;
           ramp_high 2.588;
           ramp_low 2.588;
           base_setpoint office_cooling;
           period 300;
           average_target current_price_mean_24h;
           standard_deviation_target current_price_stdev_24h;
           target air_temperature;
           setpoint cooling_setpoint;
           demand last_cooling_load;
           deadband thermostat_deadband;
           total hvac_load;
           load hvac_load;
           state power_state;
       };

     cooling_setpoint 85;
     heating_setpoint office_heating;
     // Lights
     object ZIPload {
          name lights_GC-12-47-1_load_1_C_1_zone1;
          schedule_skew 0;
          heatgain_fraction 1.0;
          power_fraction 0.40;
...